Proj Title=TEMPLATE
Program Version=6.60
