Proj Title=TEMPLATE
Current Plan=
Default Exp/Contr=0.3,0.1
SI Units
Program Version=6.60
